<?xml version="1.0" encoding="UTF-8"?>

<!-- generated on 2026-01-13T06:55:47.293656+05:30 by Eclipse SUMO duarouter 1.25.0
<duarouterConfiguration xmlns:xsi="http://www.w3.org/2001/XMLSchema-instance" xsi:noNamespaceSchemaLocation="http://sumo.dlr.de/xsd/duarouterConfiguration.xsd">

    <input>
        <net-file value="simulation_map.net.xml"/>
        <route-files value="simulation_map.trips.xml"/>
    </input>

    <output>
        <output-file value="simulation_map.rou.xml"/>
    </output>

</duarouterConfiguration>
-->

<routes xmlns:xsi="http://www.w3.org/2001/XMLSchema-instance" xsi:noNamespaceSchemaLocation="http://sumo.dlr.de/xsd/routes_file.xsd">
    <vehicle id="0" depart="0.00">
        <route edges="368807686#2 54225119#0 54225119#1 -391087561 -131497266#9 -131497266#8 -131497266#6 -131497266#5 -131497266#4 -131497266#3 -131497266#2 -131497266#0"/>
    </vehicle>
    <vehicle id="1" depart="1.50">
        <route edges="-51211096#3 -51211096#2 51211096#2 51211096#3 356689197#3 356689197#4 8581742#19 8581742#20 8581742#21 8581742#22 8581742#23 1121956774#0 1121956774#1 1121956776#0 1121956776#1 309709716#0 309709716#1 385957470#0 385957470#2 385957470#3 389274952#0 389274952#1 389274952#2 389274952#3 389274952#5 13858379#0 13858379#1 -396538190"/>
    </vehicle>
    <vehicle id="2" depart="3.00">
        <route edges="418984155 53273637#3 53273637#4 350480083#0 350480083#1 350480083#2 350480083#3 350480083#4 48796233 1119516244 489484099#2 489484099#3 489484099#4 352840711 385399100#0 385399100#1 385399100#2 48728444#0 48728444#1 48728444#2 48728444#3 48728444#4 353791130#0 -48730040 475578804#3 1461013418 -816470024#0 -391087561 -131497266#9 -131497266#8 -131497266#6 -131497266#5 -131497266#4 -131497266#3 -131497266#2 -131497266#0 -131497261 -370326667#11 -370326667#10 -370326667#8 370326667#8"/>
    </vehicle>
    <vehicle id="3" depart="4.50">
        <route edges="1082246898 180781639#0 180781634#1 -1082246899#0 -795104525#0 795104526 180781636#0 180781636#1 180781636#2 346331468 391087562 48728444#0 48728444#1 48728444#2 475476944 475476945 475476948 340573193#4 816466882#0 816466882#1 816466882#2 816466882#3 98963855 98963910#0 98963910#2 98963910#2-AddedOffRampEdge 1117294929 1117294933 1117294936 1117294942 343359263#0-AddedOnRampEdge 343359263#0 -129478574#11 -134641872"/>
    </vehicle>
    <vehicle id="4" depart="6.00">
        <route edges="-406577956 -303911714#1 -972673816 -406577955#0 -50635382 8581742#4 8581742#5 8581742#6 8581742#7 8581742#8 8581742#9 8581742#10 8581742#11 8581742#12 8581742#13 8581742#14 8581742#15 8581742#16 8581742#17 8581742#18 8581742#19 8581742#20 8581742#21 8581742#22 8581742#23 1121956774#0 1121956774#1 1121956776#0 1121956776#1 1121956777#0 1121956777#1 1114878581 528180789 51914527#0 51914527#1 51914527#2 51914527#3 393277184#0 393277184#1 528562510 1159086616 925078220#0 925078220#1 925078220#2 343116285#0 343116285#1 343116285#2 343116285#3 343116285#5 343116285#6 343116285#6-AddedOffRampEdge 1117294925 1117294943 1117294942 343359263#0-AddedOnRampEdge 343359263#0 -129478574#11 -129478574#9 -129478574#8 -129478574#7 -129478574#6 -129478574#5 -129478574#4 -129478574#2 129478574#2"/>
    </vehicle>
    <vehicle id="5" depart="7.50">
        <route edges="-1314849364 51911938#5 51911938#6 51911938#7 51911938#8 51911938#9 51911938#10 51911938#11 51911938#12 51911938#13 51911938#14 51911938#15 98963841#5 98963841#6 98963841#7 98963841#8 98963841#9 98963841#10 98963841#11 98963841#12 1114878572 1121956779 1121956776#0 1121956776#1 1121956777#0 1121956777#1 1114878581 1121956780 51911937#0 51911937#1 385397101#1 1117292687#0 1117292687#1 1117292689 1121959023#0 1121959023#1 1121959023#2 1121959023#3 1121959023#4 1121959023#5 1121959023#6 48731536#1 391084171 311103269 311103273#2 -192882922 -391084170#3"/>
    </vehicle>
    <vehicle id="6" depart="9.00">
        <route edges="376594227#1 -434316129#0 -747172265 -376594227#0 98963841#2 98963841#3 98963841#5 98963841#6 98963841#7 98963841#8 98963841#9 98963841#10 98963841#11 98963841#12 1114878572 1121956779 1121956776#0 1121956776#1 1121956777#0 1121956777#1 1114878581 528180789 51914527#0 51914527#1 51914527#2 51914527#3 393277184#0 393277184#1 528562510 1159086616 925078220#0 925078220#1 925078220#2 343116285#0 343116285#1 343116285#2 343116285#3 343116285#5 343116285#6 343116285#6-AddedOffRampEdge 1117294925 1117294930 1117294935 1117294939 1117294941#0 1117294941#1 1117294941#2 24563846 386281825#0 386281825#1 -346332317 -343119763#14 -395051018 -391086656#8 -391086656#7 -391086656#6 -391086656#5 -391086656#3 54225117#0 54225362#0 54225363#0 54225363#1 -54225354#6 -54225354#5 -54225354#4 -54225354#2 -475478807#1 200543720#3"/>
    </vehicle>
    <vehicle id="7" depart="10.50">
        <route edges="-418989093 418989093 351661202 816466882#1 816466882#2 816466882#3 98963855 98963910#0 23811054#1 98963861 98963843#0 98963843#1 -351661196 -228885223#1 -228885223#0 -228885222 -385841803 -346332163 311546251 385841804#0 385841804#1 346326711#0 346326711#1 346326711#2 346326711#3 346326711#5 346326711#6 346326711#7 346326711#9 346326711#10 346326711#11 346326711#12 346326711#13 346326711#14 -395051017 -98963849#5 -98963849#4 -98963849#2 -98963849#1 -98963849#0 -328629813 -98963865#1 -98963865#0 -395051016#29 -395051016#28 -395051016#26 -395051016#25 -395051016#24 -395051016#22 -395051016#20 -395051016#19 -395051016#18 -395051016#17 -395051016#16 -395051016#15 -395051016#14 -395051016#13 -395051016#12 -395051016#11 -395051016#9 -395051016#8 -395051016#7 -395051016#5 -395051016#4 -395051016#3 -395051016#2 -308900844#8 -308900844#7 -308900844#6 -308900844#5 -308900844#4 -308900844#3 308900844#3"/>
    </vehicle>
    <vehicle id="8" depart="12.00">
        <route edges="51193425#7 51193425#8 51193425#10 51193425#11 51193425#12 51193425#13 51193425#14 51193425#15 309708096#0 309708096#1 309708096#2 309708096#3 309708096#4 309708096#5 309708096#6 309708096#7 309708096#9 309708096#10 309708096#11 309708096#12 309708096#13 940233622#0 940233622#1 940233622#2 940233622#3 940233622#4 940233622#5 940233622#6 940233622#8 940233622#9 1117294927 1117294937 1117294931 1117294940 1117292693 925078187#0-AddedOnRampEdge 925078187#0 23811054#1 98963861 98963843#0 98963843#1 360011380#1 475476943 475476947 475476946 816466883#0 816466883#1 816466883#2 816466883#3 816466883#5 816466883#6 816466883#7 816466883#8 98963844#0 98963844#1 98963903#0 489484099#4 352840711 385399100#0 738178077 -795103821#2 -795103821#1 -795103821#0 -180781634#3 -180781634#2 -180781634#1 -180781639#0 -1082246898"/>
    </vehicle>
    <vehicle id="9" depart="13.50">
        <route edges="51189914 51189911#3 24791500#12 24791500#13 24791500#14 24791500#15 24791500#16 1117292688#0 1117292688#1 309708097 309708096#0 309708096#1 309708096#2 309708096#3 309708096#4 309708096#5 309708096#6 309708096#7 309708096#9 309708096#10 309708096#11 309708096#12 309708096#13 940233622#0 940233622#1 940233622#2 940233622#3 940233622#4 940233622#5 940233622#6 940233622#8 940233622#9 1117294927 1117294937 1117294931 1117294940 1117292693 925078187#0-AddedOnRampEdge 925078187#0 23811054#1 98963861 98963843#0 98963843#1 360011380#1 475476943 475476947 475476946 816466883#0 816466883#1 816466883#2 816466883#3 816466883#5 816466883#6 816466883#7 816466883#8 98963844#0 98963844#1 98963903#0 489484099#4 352840711 385399100#0 385399100#1"/>
    </vehicle>
    <vehicle id="10" depart="15.00">
        <route edges="-54225491#1 54225491#1 391086658#0 386281825#9 386281825#10 386281825#11 386281825#13 386281825#14 386281825#15 386281825#16 386281825#17 386281825#18 386281825#19 386281825#20 386281825#21 1117294920 1117294919#0 1117294919#1 1117294919#2 475578804#2 475578804#3 1461013418 -816470024#0 -391087561 -131497266#9 -131497266#8 -131497266#6 -131497266#5 -131497266#4 -131497266#3 -131497266#2 -131497266#0 -131497261 -370326667#11 -370326667#10 -370326667#8 -370326667#7 -370326667#6 -370326667#4 -371385065#6 -371385065#5 -371385065#4 -371385310#2"/>
    </vehicle>
    <vehicle id="11" depart="16.50">
        <route edges="708947512#1 708947512#2 -708947513#0 51911938#13 51911938#14 51911938#15 98963841#5 98963841#6 98963841#7 98963841#8 98963841#9 98963841#10 98963841#11 98963841#12 1114878572 1121956779 1121956776#0 1121956776#1 1121956777#0 1121956777#1 1114878581 528180789 51914527#0 51914527#1 51914527#2 51914527#3 393277184#0 393277184#1 528562510 1159086616 925078220#0 925078220#1 925078220#2 343116285#0 343116285#1 343116285#2 343116285#3 343116285#5 343116285#6 343116285#6-AddedOffRampEdge 1117292692 1006049762 1117292693 925078187#0-AddedOnRampEdge 925078187#0 23811054#1 98963861 98963843#0 98963843#1 360011380#1 360011380#2 360011380#3 360011380#4 230197867#1 230197867#2 -327349173 -23185502#9 -23185502#8 -23185502#7 -23185502#6 -23185502#5 -23185502#4 -23185502#3 53194744#0 53194744#1 -53194747#5 -53194747#4 -53194747#3 -53194747#2"/>
    </vehicle>
    <vehicle id="12" depart="18.00">
        <route edges="-308900844#7 308900844#7 308900844#8 395051016#2 395051016#3 395051016#4 395051016#5 395051016#7 395051016#8 395051016#9 395051016#11 395051016#12 395051016#13 395051016#14 395051016#15 395051016#16 395051016#17 395051016#18 395051016#19 395051016#20 395051016#22 395051016#24 395051016#25 395051016#26 395051016#28 395051016#29 98963865#0 98963865#1 328629813 98963849#0 98963849#1 98963849#2 98963849#4 98963849#5 395051017 -346326711#14 -346326711#13 -346326711#12 -346326711#11 -346326711#10 -346326711#9 -346326711#7 -346326711#6 -346326711#5 -346326711#3 -346326711#2 -346326711#1 -346326711#0 -385841804#1 -385841804#0 -311546251 1117294917#7 1117294917#9 1117294917#10 309917887#0 309917887#3 309917887#6 309917887#7 309917887#8 309917894 309917893#0 309917893#1 309917893#2 1117292694 1117294938 343359263#0-AddedOnRampEdge 343359263#0 343359263#3 343359263#4 343359263#5 343359263#6 343359263#7 343359263#8 343359263#9 343359263#10 343359263#11 343359263#12 343359263#13 343359263#14 343359263#15 343359263#16 343359263#17 343359263#18 343359263#20 343359263#21 24255048 50002945#0 50002945#1 50002945#2 48731367 -552411650#5 -552411650#4 -552411650#3 -552411650#1 -552411650#0 -311101595#17 -311101595#16 -311101595#14"/>
    </vehicle>
    <vehicle id="13" depart="19.50">
        <route edges="53194192 -53194201#1 -53194201#0 -345487956#4 -345487956#2 -345487956#1 -345487956#0 -23797114#2 -23797114#0 -34698627#13 -34698627#12 -34698627#11 -34698627#9 -34698627#8 -34698627#7 -34698627#6 -34698627#5 -34698627#4 -34698627#3 -34698627#2 -34698627#1 -34698627#0 -34698631 23185502#0 23185502#2 23185502#3 23185502#4 23185502#5 23185502#6 23185502#7 23185502#8 23185502#9 327349172#0 327349172#1 340573193#2 340573193#3 340573193#4 816466882#0 816466882#1 816466882#2 816466882#3 98963855 98963910#0 98963910#2 98963910#2-AddedOffRampEdge 1117294929 1117294933 1117294936 1117294942 343359263#0-AddedOnRampEdge 343359263#0 343359263#3 343359263#4 343359263#5 343359263#6 343359263#7 343359263#8 343359263#9 343359263#10 343359263#11 343359263#12 343359263#13 343359263#14 343359263#15 343359263#16 343359263#17 343359263#18 343359263#20 343359263#21 1117292689 1121959023#0 1121959023#1 1121959023#2 1121959023#3 1121959023#4 1121959023#5 1121959023#6 48731536#1 391084171 311103269 311103271#0 311103271#1"/>
    </vehicle>
    <vehicle id="14" depart="21.00">
        <route edges="51193425#10 51193425#11 51193425#12 51193425#13 51193425#14 51193425#15 309708096#0 309708096#1 309708096#2 309708096#3 309708096#4 309708096#5 309708096#6 309708096#7 309708096#9 309708096#10 309708096#11 309708096#12 309708096#13 940233622#0 940233622#1 940233622#2 940233622#3 940233622#4 940233622#5 940233622#6 -129478574#11 -129478574#9 -129478574#8 50633771 391086652#0 391086652#1 391086652#2 391086652#3"/>
    </vehicle>
    <vehicle id="15" depart="22.50">
        <route edges="23811054#1 98963861 98963843#0 816466882#3 98963855 98963910#0 98963910#2 98963910#2-AddedOffRampEdge 83618538 1117294944#0 1117294944#1 1117294944#2 1117294944#3 1117294944#4 1117294944#5 1117294944#6 925078219#0 925078219#1 393277185 1159086615 528562512#0 528562512#1 -51914527#3 -51914527#2 -51914527#1 -51914527#0 1114878574 1121956778 51911939 1121956773#0 1121956773#1 115808880#0 115808880#1 115808880#2 115808880#3 115808880#4 115808880#5 115808880#6 115808880#7 115808880#8 115808880#9 115808880#10 115808880#11 115808880#12 115808880#13 115808880#14 8581742#11 8581742#12 8581742#13"/>
    </vehicle>
    <vehicle id="16" depart="24.00">
        <route edges="-632064215 -390001790#7 -390001790#6 -390001790#5 -390001790#4 -390001790#3 -390001790#2 -390001790#0 -18598863 -389274952#0 -941526159 389274953#0 196287359#1 196287359#2 196287359#3 196287359#4 196287359#5 196287359#6 196287359#7 196287359#8 424607775#0 424607775#1 424607775#2 424607775#3 1159086616 925078220#0 925078220#1 925078220#2 343116285#0 343116285#1 343116285#2 343116285#3 343116285#5 343116285#6 343116285#6-AddedOffRampEdge 1117294925 1117294930 1117294935 1117294939 1117294941#0 1117294941#1 1117294941#2 24563846 386281825#0 386281825#1 386281825#3 386281825#4 386281825#5 386281825#6 386281825#9 386281825#10 386281825#11 386281825#13 311546251 385841804#0 385841804#1 346326711#0 346326711#1 346326711#2 346326711#3 346326711#5 346326711#6 346326711#7 346326711#9 346326711#10 346326711#11 346326711#12 346326711#13 346326711#14 -395051017 -98963849#5 -98963849#4 -98963849#2 -98963849#1 -98963849#0 -328629813 -98963865#1 -98963865#0 -395051016#29 -395051016#28 -395051016#26 -395051016#25 -395051016#24 -395051016#22 -395051016#20 -395051016#19 -395051016#18 -395051016#17 -395051016#16 -202505076#12 -202505076#11 -202505076#10 -202505076#8 -202505076#7 -202505076#6 202505076#6"/>
    </vehicle>
    <vehicle id="17" depart="25.50">
        <route edges="51911938#8 51911938#9 51911938#10 51911938#11 51911938#12 51911938#13 51911938#14 51911938#15 98963841#5 98963841#6 98963841#7 98963841#8 98963841#9 98963841#10 98963841#11 98963841#12 1114878572 1121956779 1121956776#0 1121956776#1 1121956777#0 1121956777#1 1114878581 528180789 51914527#0 51914527#1 51914527#2 51914527#3 393277184#0 393277184#1 528562510 1159086616 925078220#0 925078220#1 925078220#2 343116285#0 343116285#1 343116285#2 343116285#3 343116285#5 343116285#6 343116285#6-AddedOffRampEdge 1117294925 1117294930 1117294935 1117294939 1117294941#0 1117294941#1 1117294941#2 24563846 386281825#0 386281825#1 -346332317 -343119763#14 -343119763#13 343119763#13"/>
    </vehicle>
    <vehicle id="18" depart="27.00">
        <route edges="53194748#1 23185502#2 23185502#3 23185502#4 23185502#5 23185502#6 23185502#7 23185502#8 23185502#9 327349172#0 327349172#1 1117294922#1 1117294922#2 48729755#1 1117294917#1 1117294917#2 1117294917#3 1117294917#4 1117294917#5 1117294917#6 1117294917#7 1117294917#9 1117294917#10 309917887#0 309917887#3 309917887#6 309917887#7 309917887#8 309917894 24563846"/>
    </vehicle>
    <vehicle id="19" depart="28.50">
        <route edges="391086656#5 54225491#0 54225491#1 391086658#0 309917887#3 309917887#6 309917887#7 309917887#8 309917894 309917893#0 309917893#1 309917893#2 1117292694 1117294938 343359263#0-AddedOnRampEdge 343359263#0 343359263#3 343359263#4 343359263#5 343359263#6 343359263#7 343359263#8 343359263#9 343359263#10 343359263#11 343359263#12 343359263#13 343359263#14 343359263#15 343359263#16 343359263#17 343359263#18 343359263#20 343359263#21 350014237#0 350014237#1 350014237#2 350014237#3 350014237#4 350014237#5 -199428328#1 -199428328#0"/>
    </vehicle>
    <vehicle id="20" depart="30.00">
        <route edges="-475478809#3 -475478810#1 -475478810#0 -475478809#1 -475478809#0 -343119761#1 -343119761#0 -343119762#3 -343119762#2 -343119762#1 -343119762#0 343119763#1 343119763#2 343119763#3 343119763#4 343119763#5 343119763#6 343119763#7 54225355 391086653#0 391086653#1 391086653#2 391086653#3 50633747#0 50633747#1 50633747#2 129478575 129478574#0 129478574#1 129478574#2 129478574#4 50633768#0 -486761232#4 -486761232#3 -486761232#2 -50633775#2 -573824328 -584930588#0 -584930589 -486761231 -134641875 48731537#0 48731537#1 48731537#2 48731537#3 508770366#0 508770366#2 -508770366#4"/>
    </vehicle>
    <vehicle id="21" depart="31.50">
        <route edges="-233596651 -390001790#12 356689198#0 356689198#2 -389274955#12 -389274955#11 -389274955#10 -389274955#8 -389274955#7 -389274955#6 -389274955#5 -389274955#4 -389274955#3 -389274955#2 -389274955#1 -389274955#0 -941526159 389274953#0 196287359#1 196287359#2 196287359#3 196287359#4 196287359#5 196287359#6 196287359#7 196287359#8 424607775#0 424607775#1 424607775#2 424607775#3 1159086616 925078220#0 925078220#1 925078220#2 343116285#0 343116285#1 343116285#2 343116285#3 343116285#5 343116285#6 343116285#6-AddedOffRampEdge 1117292692 1006049762 1117292693 925078187#0-AddedOnRampEdge 925078187#0 23811054#1 98963861 98963843#0 98963843#1 360011380#1 360011380#2 360011380#3 360011380#4 230197867#1 230197867#2 -327349173 -23185502#9 -23185502#8 -23185502#7 -23185502#6 -23185502#5 -23185502#4 -23185502#3 -23185502#2 -23185502#0 34698631 34698627#0 34698627#1 34698627#2 34698627#3 34698627#4 34698627#5 34698627#6 34698627#7 34698627#8 34698627#9 -417680415"/>
    </vehicle>
    <vehicle id="22" depart="33.00">
        <route edges="-313323574 134641870#3 -50738235#1 -50738235#0 915331152#1 915331153#3 915331151 584930044 134641875 486761231 584930589 584930588#0 573824328 -50633775#0"/>
    </vehicle>
    <vehicle id="23" depart="34.50">
        <route edges="360011380#3 360011380#4 1117294922#1 1117294922#2 48729755#1 1117294920 -391087559 -54225118#2 -54225118#1 54225120#0 -54225112"/>
    </vehicle>
    <vehicle id="24" depart="36.00">
        <route edges="-591870191 -518512216 -346326711#25 -346326711#24 -346326711#23 -346326711#22 -346326711#21 -346326711#20 -346326711#19 -346326711#18 -346326711#17 -346326711#16 -346326711#15 -346326711#14 -346326711#13 -346326711#12 -346326711#11 -346326711#10 -346326711#9 -346326711#7 -346326711#6 -346326711#5 -346326711#3 -346326711#2 -346326711#1 -346326711#0 -385841804#1 -385841804#0 -311546251 346332163 385841803 228885222 228885223#0 228885223#1 351661196 816466882#0 816466882#1 816466882#2 50061200 391086661 -391086661"/>
    </vehicle>
    <vehicle id="25" depart="37.50">
        <route edges="-508770366#3 -508770366#2 -508770366#0 -48731537#3 -48731537#2 -48731537#1 -48731537#0 134641875 486761231 584930589 584930588#0 584930588#1 584930588#2 584930588#3 486761232#0 -539504488#2 -539504488#1 -539504488#0 -346332440 309708096#13 940233622#0 940233622#1 940233622#2 940233622#3 940233622#4 940233622#5 940233622#6 940233622#8 940233622#9 309917891 1117294941#0 1117294941#1 1117294941#2 24563846 386281825#0 386281825#1 386281825#3 386281825#4 386281825#5 386281825#6 386281825#9 386281825#10 386281825#11 386281825#13 386281825#14 386281825#15 386281825#16 386281825#17 386281825#18 386281825#19 386281825#20 386281825#21 1117294920 1117294919#0 1117294919#1 1117294919#2 475578804#2 475578804#3 1461013418 -816470024#0 -391087561 -131497266#9 -131497266#8 -131497266#6 -131497266#5 -131497266#4 -131497266#3 -131497266#2 -131497266#0 -131497261 -370326667#11 -370326667#10 -370326667#8 -370326667#7 -370326667#6 -370326667#4 -371385065#6 -371385065#5 -371385065#4 -371385065#3 -371385370#2 371385453#0 620768389#0 620768389#1"/>
    </vehicle>
    <vehicle id="26" depart="39.00">
        <route edges="372780749#0 372780749#1 372780749#2 -202505076#4 377061463 395051016#13 395051016#14 395051016#15 395051016#16 395051016#17 395051016#18 395051016#19 395051016#20 395051016#22 395051016#24 395051016#25 395051016#26 395051016#28 395051016#29 98963865#0 98963865#1 328629813 98963849#0 98963849#1 98963849#2 98963849#4 98963849#5 395051017 -346326711#14 -346326711#13 -346326711#12 -346326711#11 -346326711#10 -346326711#9 -346326711#7 -346326711#6 -346326711#5 -346326711#3 -346326711#2 -346326711#1 -346326711#0 -385841804#1 -385841804#0 -311546251 1117294917#7 1117294917#9 1117294917#10 309917887#0 309917887#3 309917887#6 309917887#7 309917887#8 309917894 309917893#0 309917893#1 309917893#2 1117292694 1117294938 343359263#0-AddedOnRampEdge 343359263#0 343359263#3 343359263#4 343359263#5 343359263#6 343359263#7 343359263#8 343359263#9 346332440 539504488#0 539504488#1 539504488#2 -486761232#0 -584930588#3 -584930588#2 -584930588#1 -584930588#0 -584930589 -486761231 -134641875 -584930044 1244017281 915331153#5 915331153#6 915331153#0 915331153#1 915331152#0 50738235#0 50738235#1 -134641870#3 313323574 313323578#3"/>
    </vehicle>
    <vehicle id="27" depart="40.50">
        <route edges="-385957470#2 -385957470#0 309709715#0 939311674 1114878581 528180789 51914527#0 51914527#1 51914527#2 51914527#3 393277184#0 393277184#1 528562510 1159086616 925078220#0 925078220#1 925078220#2 343116285#0 343116285#1 343116285#2 343116285#3 343116285#5 343116285#6 343116285#6-AddedOffRampEdge 1117294925 1117294943 1117294942 343359263#0-AddedOnRampEdge 343359263#0 -129478574#11 -129478574#9 -129478574#8 50633771 391086652#0"/>
    </vehicle>
    <vehicle id="28" depart="42.00">
        <route edges="-377061441 377061465#3 -54225363#7 -54225363#5 -54225363#4 -54225363#3 -54225363#2 -54225363#1 -54225363#0 -54225362#0"/>
    </vehicle>
    <vehicle id="29" depart="43.50">
        <route edges="940233622#4 940233622#5 940233622#6 940233622#8 940233622#9 309917891 1117294941#0 1117294941#1 1117294941#2 24563846 386281825#0 386281825#1 386281825#3 386281825#4 386281825#5 386281825#6 386281825#9 386281825#10 386281825#11 386281825#13 311546251 385841804#0 385841804#1 346326711#0 346326711#1 346326711#2 346326711#3"/>
    </vehicle>
    <vehicle id="30" depart="45.00">
        <route edges="309708096#2 309708096#3 309708096#4 309708096#5 309708096#6 309708096#7 309708096#9 309708096#10 309708096#11 309708096#12 309708096#13 940233622#0 940233622#1 940233622#2 940233622#3 940233622#4 940233622#5 940233622#6 -129478574#11 -129478574#9 -129478574#8 -129478574#7 -129478574#6 -129478574#5 -129478574#4 -129478574#2 -129478574#1 -129478574#0 -129478575 -50633747#2 -50633747#1 -50633747#0 200573235#0 200573235#2 376594245#1"/>
    </vehicle>
    <vehicle id="31" depart="46.50">
        <route edges="53161565#1 8581742#21 8581742#22 8581742#23 1121956774#0 1121956774#1 1121956776#0 1121956776#1 1121956777#0 1121956777#1 1114878581 528180789 51914527#0 51914527#1 51914527#2 51914527#3 393277184#0 393277184#1 366602634#0 366602634#1 48726959#0"/>
    </vehicle>
    <vehicle id="32" depart="48.00">
        <route edges="-475478809#7 54225354#0 54225354#1 54225354#2 54225354#4 54225354#5 54225354#6 -54225363#1 -54225363#0 -54225362#0 -54225117#0 391086656#3 391086656#5 54225491#0 54225491#1 391086658#0 309917887#3 309917887#6 309917887#7 309917887#8 309917894 309917893#0 309917893#1 309917893#2 1117292694 1117294938 343359263#0-AddedOnRampEdge 343359263#0 343359263#3 343359263#4 343359263#5 343359263#6 343359263#7 343359263#8 343359263#9 343359263#10 343359263#11 343359263#12 343359263#13 343359263#14 343359263#15 343359263#16 343359263#17 343359263#18 343359263#20 343359263#21 350014237#0 350014237#1 350014237#2 350014237#3 350014237#4 350014237#5 350014237#7 350014237#8 350014237#9 667317200 390003245#0 390003245#1 390003246 -13858379#7 -13858379#6"/>
    </vehicle>
    <vehicle id="33" depart="49.50">
        <route edges="-53273640#0 53273640#0 53273640#1 53273640#2 258483484#3 258483484#5 258483484#6 258483484#7 258483484#8 258483484#9 258483484#10 350480083#0 350480083#1 350480083#2 350480083#3 350480083#4 48796233 1119516244 489484099#2 489484099#3 489484099#4 352840711 385399100#0 385399100#1 385399100#2 -391087562 -346331468 -180781636#2 -180781636#1 -180781636#0 -795104526 -927366361#3 496284252 -496284252"/>
    </vehicle>
    <vehicle id="34" depart="51.00">
        <route edges="-395051016#25 395051016#25 395051016#26 395051016#28 395051016#29 98963865#0 98963865#1 328629813 98963849#0 98963849#1 98963849#2 98963849#4 98963849#5 395051017 -346326711#14 -346326711#13 -346326711#12 -346326711#11 -346326711#10 -346326711#9 -346326711#7 -346326711#6 -346326711#5 -346326711#3 -54225117#2 -54225117#1 -54225117#0 391086656#3 -391086655#3 -391086655#1 -391086655#0 -54225489 -343119763#11 -343119763#10 -50633737#1 50633738 129478360 129478361#0 -687607144 687607144"/>
    </vehicle>
    <vehicle id="35" depart="52.50">
        <route edges="53273635 53273632#6 53273632#7 258483484#2 258483484#3 258483484#5 258483484#6 258483484#7 258483484#8 258483484#9 258483484#10 350480083#0 350480083#1 350480083#2 350480083#3 350480083#4 48796233 1119516244 489484099#2 489484099#3 489484099#4 352840711 385399100#0 385399100#1 385399100#2 48728444#0 48728444#1 48728444#2 475476944 475476945 475476948 340573193#4 816466882#0 816466882#1 816466882#2 816466882#3 98963855 98963910#0 98963910#2 98963910#2-AddedOffRampEdge 83618538 1117294944#0 1117294944#1 1117294944#2 1117294944#3 1117294944#4 1117294944#5 1117294944#6 925078219#0 925078219#1 393277185 1159086615 528562512#0 528562512#1 -51914527#3 -51914527#2 -51914527#1 -51914527#0 1114878574 1121956778 51911939 1121956773#0 1121956773#1 115808880#0 115808880#1 115808880#2 115808880#3 115808880#4 115808880#5 115808880#6 115808880#7 115808880#8 115808880#9 115808880#10 115808880#11 115808880#12 115808880#13 115808880#14 115808880#15 115808880#16 115808880#17 115808880#18 115808880#19 115808880#20 115808880#21 115808880#22 50635382 406577955#0 -52563927#1"/>
    </vehicle>
    <vehicle id="36" depart="54.00">
        <route edges="376602343#1 -376602343#1 -376602343#0 343119763#7 343119763#9 343119763#10 343119763#11 343119763#13 343119763#14 346332317 386281825#3 386281825#4 386281825#5 386281825#6 386281825#9 386281825#10 386281825#11 386281825#13 386281825#14 386281825#15 386281825#16 386281825#17 386281825#18 386281825#19 386281825#20 386281825#21 570981155#0 343116284 -327349173 -23185502#9 -23185502#8 -23185502#7 -23185502#6 -23185502#5 -23185502#4 -23185502#3 -23185502#2 -23185502#0 34698631 34698627#0 34698627#1 34698627#2 34698627#3 34698627#4 34698627#5 34698627#6 34698627#7 34698627#8 34698627#9 34698627#11 34698627#12 34698627#13 23797114#0 23797114#2 345487956#0 345487956#1 345487956#2 345487956#4 345487956#6 345487956#8 -549726216"/>
    </vehicle>
    <vehicle id="37" depart="55.50">
        <route edges="547501531#0 547501531#1 1300916288#0 1300916288#1 -1300916288#1 -1300916288#0 -547501531#1 -547501531#0 98963849#1 98963849#2 98963849#4 98963849#5 395051017 -346326711#14 -346326711#13 -346326711#12 -510832815 -510832816 -48730297#5 -48730297#4 -48730297#3 -48730297#2 -48730297#0 54225113#0 54225113#1 54225113#2 -391087560 -48730296 54225119#1 816470024#0 816470024#1 816470025 816466883#0 816466883#1 816466883#2 816466883#3 816466883#5 816466883#6 816466883#7 816466883#8 98963844#0 98963844#1 98963903#0 489484099#4 352840711 385399100#0 738178077 -795103821#2 -795103821#1 -795103821#0 -180781634#3 -180781634#2 1082246899#1 1082246898"/>
    </vehicle>
    <vehicle id="38" depart="57.00">
        <route edges="-50738235#0 915331152#1 915331153#3 915331151 584930044 134641875 486761231 584930589 584930588#0 584930588#1 584930588#2 584930588#3 486761232#0 -539504488#2 -539504488#1 -539504488#0 -346332440 309708096#13 940233622#0 940233622#1 940233622#2 940233622#3 940233622#4 940233622#5 940233622#6 940233622#8 940233622#9 309917891 1117294941#0 1117294941#1 1117294941#2 24563846 386281825#0 386281825#1 -346332317 -343119763#14 -395051018 -391086656#8 -391086656#7 -391086656#6 -391086656#5 -391086656#3 54225117#0 54225362#0 54225363#0 54225363#1 -54225354#6 -54225354#5 -54225354#4 -54225354#2 -54225354#1 -54225354#0 -475478809#6 -475478809#5"/>
    </vehicle>
    <vehicle id="39" depart="58.50">
        <route edges="309917891 1117294941#0 1117294941#1 1117294941#2 24563846 386281825#0 386281825#1 309917887#6 309917887#7 309917887#8 309917894 309917893#0 309917893#1 1459610529 1117294928 1117294932 1117294934 1117294944#0 1117294944#1 1117294944#2 1117294944#3 1117294944#4 1117294944#5 1117294944#6 925078219#0 925078219#1 1159086613 366602634#0 366602634#1 48726959#0 48726959#1 48726959#2 48726959#3 48726959#4 48726959#5 48726959#6 48726959#7 48726959#8 385397103#1 941526159 389274955#0 389274955#1 389274955#2 389274955#3 389274955#4 389274955#5 389274955#6 389274955#7 389274955#8 389274955#10 389274955#11 389274955#12 389274955#13 389274955#14 389274955#16 389274955#18 389274955#20 389274955#21 -487441123"/>
    </vehicle>
    <vehicle id="40" depart="60.00">
        <route edges="343119763#10 343119763#11 54225489 391086655#0 391086655#1 391086655#3 -391086656#3 54225117#0 54225362#0 54225363#0 54225363#1"/>
    </vehicle>
    <vehicle id="41" depart="61.50">
        <route edges="-795103821#1 -795103821#0 -795104525#2 -795104525#1 -795104525#0 795104526 180781636#0 180781636#1 180781636#2 346331468 391087562 48728444#0 48728444#1 48728444#2 48728444#3 48728444#4 353791130#0 353791130#1 48729755#1 1117294917#1 1117294917#2 1117294917#3 230197862#0 230197862#1 391086662#0 391086662#1 391086662#2 -48730299#0 346326711#9 346326711#10 346326711#11 346326711#12 346326711#13 346326711#14 -395051017 -98963849#5 -98963849#4 -98963849#2 -98963849#1 -98963849#0 -328629813 -98963865#1 -98963865#0 -395051016#29 -395051016#28 -395051016#26"/>
    </vehicle>
    <vehicle id="42" depart="63.00">