<configuration>
    <input>
        <net-file value="simulation_map.net.xml"/>
        <route-files value="simulation_map.rou.xml"/>
    </input>

    <time>
        <begin value="0"/>
        <end value="3600"/>
    </time>
</configuration>
